Version 4
SHEET 1 880 680
WIRE 432 -160 -160 -160
WIRE 432 -112 432 -160
WIRE 432 0 432 -32
WIRE 592 0 432 0
WIRE 640 0 592 0
WIRE 432 32 432 0
WIRE 112 48 -16 48
WIRE 208 48 192 48
WIRE 208 80 208 48
WIRE 272 80 208 80
WIRE 368 80 272 80
WIRE 592 80 592 0
WIRE -160 128 -160 -160
WIRE -16 128 -16 48
WIRE 272 128 272 80
WIRE -160 240 -160 208
WIRE -16 240 -16 208
WIRE -16 240 -160 240
WIRE 272 240 272 192
WIRE 272 240 -16 240
WIRE 432 240 432 128
WIRE 432 240 272 240
WIRE 592 240 592 144
WIRE 592 240 432 240
WIRE 272 256 272 240
FLAG 272 256 0
FLAG 640 0 out
FLAG -16 48 in
SYMBOL voltage -16 112 R0
WINDOW 3 -68 150 Left 2
WINDOW 123 0 0 Left 0
WINDOW 39 0 0 Left 0
SYMATTR InstName V1
SYMATTR Value PULSE(-15 15 0 0 0 1u 2u)
SYMBOL npn 368 32 R0
SYMATTR InstName Q1
SYMATTR Value BC547C
SYMBOL res 208 32 R90
WINDOW 0 0 56 VBottom 2
WINDOW 3 32 56 VTop 2
SYMATTR InstName R1
SYMATTR Value 10k
SYMBOL voltage -160 112 R0
WINDOW 123 0 0 Left 0
WINDOW 39 0 0 Left 0
SYMATTR InstName V2
SYMATTR Value 3.3
SYMBOL res 416 -128 R0
SYMATTR InstName R2
SYMATTR Value 1k
SYMBOL diode 288 192 R180
WINDOW 0 24 64 Left 2
WINDOW 3 24 0 Left 2
SYMATTR InstName D1
SYMATTR Value 1N4148
SYMBOL diode 608 144 R180
WINDOW 0 24 64 Left 2
WINDOW 3 24 0 Left 2
SYMATTR InstName D2
SYMATTR Value 1N4148
TEXT -194 282 Left 2 !.tran 5u
